135398658
  -OEChem-04102401003D

 51 53  0     1  0  0  0  0  0999 V2000
    8.0491    1.4182   -1.5277 O   0  0  0  0  0  0  0  0  0  0  0  0
    4.4122    1.6200    1.9568 O   0  0  0  0  0  0  0  0  0  0  0  0
    6.0108    1.3252   -2.5211 O   0  0  0  0  0  0  0  0  0  0  0  0
    6.8042   -4.0838   -0.6649 O   0  0  0  0  0  0  0  0  0  0  0  0
    7.6945   -3.0943    1.1724 O   0  0  0  0  0  0  0  0  0  0  0  0
   -5.9093   -2.9204    0.4122 O   0  0  0  0  0  0  0  0  0  0  0  0
    4.7608    0.8276   -0.1949 N   0  0  0  0  0  0  0  0  0  0  0  0
   -1.6476    0.9081    0.1046 N   0  0  0  0  0  0  0  0  0  0  0  0
   -4.5536   -0.5710    0.6074 N   0  0  0  0  0  0  0  0  0  0  0  0
   -5.9069    1.7503   -0.2175 N   0  0  0  0  0  0  0  0  0  0  0  0
   -7.7726   -1.8360   -0.4395 N   0  0  0  0  0  0  0  0  0  0  0  0
   -7.8097    0.4978   -0.7690 N   0  0  0  0  0  0  0  0  0  0  0  0
   -9.6859   -0.8042   -1.3041 N   0  0  0  0  0  0  0  0  0  0  0  0
    6.2009    0.8273   -0.1446 C   0  0  1  0  0  0  0  0  0  0  0  0
    6.7744   -0.4895    0.3926 C   0  0  0  0  0  0  0  0  0  0  0  0
    6.4736   -1.7401   -0.4432 C   0  0  0  0  0  0  0  0  0  0  0  0
    3.9759    1.2302    0.8769 C   0  0  0  0  0  0  0  0  0  0  0  0
    2.5065    1.1468    0.6752 C   0  0  0  0  0  0  0  0  0  0  0  0
    6.7081    1.1983   -1.5230 C   0  0  0  0  0  0  0  0  0  0  0  0
   -0.2529    0.9878    0.2968 C   0  0  0  0  0  0  0  0  0  0  0  0
   -2.5714    0.7288    1.1818 C   0  0  0  0  0  0  0  0  0  0  0  0
    1.6612    0.9708    1.7708 C   0  0  0  0  0  0  0  0  0  0  0  0
    1.9719    1.2436   -0.6095 C   0  0  0  0  0  0  0  0  0  0  0  0
    0.2816    0.8911    1.5817 C   0  0  0  0  0  0  0  0  0  0  0  0
    0.5922    1.1640   -0.7987 C   0  0  0  0  0  0  0  0  0  0  0  0
    7.0506   -3.0138    0.1355 C   0  0  0  0  0  0  0  0  0  0  0  0
   -3.9793    0.6457    0.6605 C   0  0  0  0  0  0  0  0  0  0  0  0
   -5.8144   -0.5927    0.1335 C   0  0  0  0  0  0  0  0  0  0  0  0
   -4.6431    1.7843    0.2561 C   0  0  0  0  0  0  0  0  0  0  0  0
   -6.4957    0.5378   -0.2767 C   0  0  0  0  0  0  0  0  0  0  0  0
   -6.4805   -1.8968    0.0578 C   0  0  0  0  0  0  0  0  0  0  0  0
   -8.4056   -0.6611   -0.8382 C   0  0  0  0  0  0  0  0  0  0  0  0
    6.5038    1.6400    0.5281 H   0  0  0  0  0  0  0  0  0  0  0  0
    7.8637   -0.3918    0.4885 H   0  0  0  0  0  0  0  0  0  0  0  0
    6.3965   -0.6519    1.4108 H   0  0  0  0  0  0  0  0  0  0  0  0
    6.8889   -1.6163   -1.4495 H   0  0  0  0  0  0  0  0  0  0  0  0
    5.3897   -1.8775   -0.5243 H   0  0  0  0  0  0  0  0  0  0  0  0
    4.3296    0.4399   -1.0276 H   0  0  0  0  0  0  0  0  0  0  0  0
   -2.5128    1.5573    1.8988 H   0  0  0  0  0  0  0  0  0  0  0  0
   -2.3526   -0.1978    1.7273 H   0  0  0  0  0  0  0  0  0  0  0  0
    2.0592    0.8888    2.7789 H   0  0  0  0  0  0  0  0  0  0  0  0
    2.5912    1.4123   -1.4855 H   0  0  0  0  0  0  0  0  0  0  0  0
   -1.9866    0.9798   -0.8489 H   0  0  0  0  0  0  0  0  0  0  0  0
   -0.3396    0.7540    2.4616 H   0  0  0  0  0  0  0  0  0  0  0  0
    0.1874    1.2477   -1.8041 H   0  0  0  0  0  0  0  0  0  0  0  0
   -4.1876    2.7670    0.2961 H   0  0  0  0  0  0  0  0  0  0  0  0
    8.3741    1.6738   -2.4173 H   0  0  0  0  0  0  0  0  0  0  0  0
   -8.2907   -2.7061   -0.5181 H   0  0  0  0  0  0  0  0  0  0  0  0
    7.1925   -4.9084   -0.3022 H   0  0  0  0  0  0  0  0  0  0  0  0
  -10.2237   -0.0031   -1.6162 H   0  0  0  0  0  0  0  0  0  0  0  0
  -10.1334   -1.7130   -1.3509 H   0  0  0  0  0  0  0  0  0  0  0  0
  1 19  1  0  0  0  0
  1 47  1  0  0  0  0
  2 17  2  0  0  0  0
  3 19  2  0  0  0  0
  4 26  1  0  0  0  0
  4 49  1  0  0  0  0
  5 26  2  0  0  0  0
  6 31  2  0  0  0  0
  7 14  1  0  0  0  0
  7 17  1  0  0  0  0
  7 38  1  0  0  0  0
  8 20  1  0  0  0  0
  8 21  1  0  0  0  0
  8 43  1  0  0  0  0
  9 27  1  0  0  0  0
  9 28  2  0  0  0  0
 10 29  1  0  0  0  0
 10 30  2  0  0  0  0
 11 31  1  0  0  0  0
 11 32  1  0  0  0  0
 11 48  1  0  0  0  0
 12 30  1  0  0  0  0
 12 32  2  0  0  0  0
 13 32  1  0  0  0  0
 13 50  1  0  0  0  0
 13 51  1  0  0  0  0
 14 15  1  0  0  0  0
 14 19  1  0  0  0  0
 14 33  1  0  0  0  0
 15 16  1  0  0  0  0
 15 34  1  0  0  0  0
 15 35  1  0  0  0  0
 16 26  1  0  0  0  0
 16 36  1  0  0  0  0
 16 37  1  0  0  0  0
 17 18  1  0  0  0  0
 18 22  2  0  0  0  0
 18 23  1  0  0  0  0
 20 24  2  0  0  0  0
 20 25  1  0  0  0  0
 21 27  1  0  0  0  0
 21 39  1  0  0  0  0
 21 40  1  0  0  0  0
 22 24  1  0  0  0  0
 22 41  1  0  0  0  0
 23 25  2  0  0  0  0
 23 42  1  0  0  0  0
 24 44  1  0  0  0  0
 25 45  1  0  0  0  0
 27 29  2  0  0  0  0
 28 30  1  0  0  0  0
 28 31  1  0  0  0  0
 29 46  1  0  0  0  0
M  END
> <PUBCHEM_COMPOUND_CID>
135398658

> <PUBCHEM_CONFORMER_RMSD>
1

> <PUBCHEM_CONFORMER_DIVERSEORDER>
1
44
77
59
34
73
78
24
80
49
28
22
62
60
71
38
63
26
52
70
18
69
53
31
13
66
48
30
41
33
74
39
37
42
15
68
76
57
67
21
58
5
54
16
25
45
11
50
81
82
55
56
83
75
79
10
46
47
9
35
36
65
12
8
40
64
7
3
27
43
17
14
61
29
23
72
2
4
32
20
51
6
19

> <PUBCHEM_MMFF94_PARTIAL_CHARGES>
43
1 -0.65
10 -0.62
11 -0.49
12 -0.63
13 -0.85
14 0.36
16 0.06
17 0.54
18 0.09
19 0.66
2 -0.57
20 0.1
21 0.51
22 -0.15
23 -0.15
24 -0.15
25 -0.15
26 0.66
27 0.17
28 0.4
29 0.16
3 -0.57
30 0.49
31 0.54
32 0.56
38 0.37
4 -0.65
41 0.15
42 0.15
43 0.4
44 0.15
45 0.15
46 0.15
47 0.5
48 0.37
49 0.5
5 -0.57
50 0.4
51 0.4
6 -0.57
7 -0.73
8 -0.87
9 -0.62

> <PUBCHEM_EFFECTIVE_ROTOR_COUNT>
10

> <PUBCHEM_PHARMACOPHORE_FEATURES>
18
1 1 acceptor
1 11 donor
1 13 donor
1 2 acceptor
1 3 acceptor
1 4 acceptor
1 5 acceptor
1 6 acceptor
1 7 donor
1 8 cation
1 8 donor
1 9 acceptor
3 1 3 19 anion
3 10 12 30 cation
3 4 5 26 anion
6 11 12 28 30 31 32 rings
6 18 20 22 23 24 25 rings
6 9 10 27 28 29 30 rings

> <PUBCHEM_HEAVY_ATOM_COUNT>
32

> <PUBCHEM_ATOM_DEF_STEREO_COUNT>
1

> <PUBCHEM_ATOM_UDEF_STEREO_COUNT>
0

> <PUBCHEM_BOND_DEF_STEREO_COUNT>
0

> <PUBCHEM_BOND_UDEF_STEREO_COUNT>
0

> <PUBCHEM_ISOTOPIC_ATOM_COUNT>
0

> <PUBCHEM_COMPONENT_COUNT>
1

> <PUBCHEM_CACTVS_TAUTO_COUNT>
-1

> <PUBCHEM_CONFORMER_ID>
0812050200000001

> <PUBCHEM_MMFF94_ENERGY>
85.6377

> <PUBCHEM_FEATURE_SELFOVERLAP>
91.558

> <PUBCHEM_SHAPE_FINGERPRINT>
10049733 168 17130994149202078246
10066227 49 18341048532106932219
10816530 90 12107791817859986870
11135609 127 18188777283996346724
11315181 36 17313386760445676761
11386260 185 17530692022166388444
11408170 132 16081637877395604924
12082328 90 18411416198859754469
125118 31 8358259241928437494
12522641 33 17894638085227350588
12539765 74 11241970352412177480
13782708 43 18131351903693031512
15131766 46 7780642873356733650
15152005 1 17836085573181530678
15183329 4 17603862325965690953
15198563 99 16516244029198877108
15352257 5 18413109458965472911
15475509 35 18131626760979688266
15510794 2 17988640826225506712
16994733 274 9367338228558049574
1754908 1 13110959842784072191
19841028 212 18267866074389042634
2026 5 18270678649821411967
21150785 3 17967252035078077453
21267235 1 16056891234073345224
23559900 14 18122050160989519281
23569943 247 18194120712083962714
23576562 1 16371580339887553167
33532 11 18342173354097958634
3383291 50 16558752325428260415
439807 62 18341895190414614466
504579 68 17530962510263054221
5470011 282 18186805819673375757
5718773 13 18343019956740040170
59682541 35 12895069639453639079
636775 72 7853590024110503215

> <PUBCHEM_SHAPE_MULTIPOLES>
588.46
31.84
2.96
1.49
18.52
3.89
-0.17
18.54
-11.18
-5.16
0.1
-2.19
-0.61
-1.48

> <PUBCHEM_SHAPE_SELFOVERLAP>
1261.222

> <PUBCHEM_SHAPE_VOLUME>
320.4

> <PUBCHEM_COORDINATE_TYPE>
2
5
10

$$$$
